<routes>
        <!-- Routes -->
        <vType id="bike" vClass="bicycle" jmIgnoreJunctionFoeProb="1" jmIgnoreFoeProb="1"/>
        <route id="r_0" edges="-E31 -E29" />
        <route id="r_1" edges="E29 E30" />
        <route id="r_2" edges="-E31 E30" />
        <route id="r_3" edges="-E30 -E29" />
        <route id="r_4" edges="-E30 E31" />
        <route id="r_5" edges="E29 E31" />
        <!-- Vehicles, persons and containers (sorted by depart) -->
    <vehicle id="v_0" type="bike" route="r_0" depart="0" />
    <vehicle id="v_1" type="bike" route="r_1" depart="0" />
    <vehicle id="v_2" type="bike" route="r_2" depart="0" />
    <vehicle id="v_3" type="bike" route="r_3" depart="0" />
    <vehicle id="v_4" type="bike" route="r_4" depart="0" />
    <vehicle id="v_5" type="bike" route="r_5" depart="0" />
    <vehicle id="v_6" type="bike" route="r_1" depart="1" />
    <vehicle id="v_7" type="bike" route="r_2" depart="1" />
    <vehicle id="v_8" type="bike" route="r_3" depart="1" />
    <vehicle id="v_9" type="bike" route="r_4" depart="1" />
    <vehicle id="v_10" type="bike" route="r_5" depart="1" />
    <vehicle id="v_11" type="bike" route="r_0" depart="2" />
    <vehicle id="v_12" type="bike" route="r_1" depart="2" />
    <vehicle id="v_13" type="bike" route="r_2" depart="2" />
    <vehicle id="v_14" type="bike" route="r_3" depart="2" />
    <vehicle id="v_15" type="bike" route="r_4" depart="2" />
    <vehicle id="v_16" type="bike" route="r_5" depart="2" />
    <vehicle id="v_17" type="bike" route="r_0" depart="3" />
    <vehicle id="v_18" type="bike" route="r_1" depart="3" />
    <vehicle id="v_19" type="bike" route="r_2" depart="3" />
    <vehicle id="v_20" type="bike" route="r_3" depart="3" />
    <vehicle id="v_21" type="bike" route="r_4" depart="3" />
    <vehicle id="v_22" type="bike" route="r_5" depart="3" />
    <vehicle id="v_23" type="bike" route="r_1" depart="4" />
    <vehicle id="v_24" type="bike" route="r_2" depart="4" />
    <vehicle id="v_25" type="bike" route="r_3" depart="4" />
    <vehicle id="v_26" type="bike" route="r_4" depart="4" />
    <vehicle id="v_27" type="bike" route="r_5" depart="4" />
    <vehicle id="v_28" type="bike" route="r_0" depart="5" />
    <vehicle id="v_29" type="bike" route="r_1" depart="5" />
    <vehicle id="v_30" type="bike" route="r_2" depart="5" />
    <vehicle id="v_31" type="bike" route="r_4" depart="5" />
    <vehicle id="v_32" type="bike" route="r_5" depart="5" />
    <vehicle id="v_33" type="bike" route="r_0" depart="6" />
    <vehicle id="v_34" type="bike" route="r_1" depart="6" />
    <vehicle id="v_35" type="bike" route="r_2" depart="6" />
    <vehicle id="v_36" type="bike" route="r_3" depart="6" />
    <vehicle id="v_37" type="bike" route="r_4" depart="6" />
    <vehicle id="v_38" type="bike" route="r_5" depart="6" />
    <vehicle id="v_39" type="bike" route="r_0" depart="7" />
    <vehicle id="v_40" type="bike" route="r_1" depart="7" />
    <vehicle id="v_41" type="bike" route="r_2" depart="7" />
    <vehicle id="v_42" type="bike" route="r_3" depart="7" />
    <vehicle id="v_43" type="bike" route="r_4" depart="7" />
    <vehicle id="v_44" type="bike" route="r_5" depart="7" />
    <vehicle id="v_45" type="bike" route="r_0" depart="8" />
    <vehicle id="v_46" type="bike" route="r_1" depart="8" />
    <vehicle id="v_47" type="bike" route="r_2" depart="8" />
    <vehicle id="v_48" type="bike" route="r_3" depart="8" />
    <vehicle id="v_49" type="bike" route="r_4" depart="8" />
    <vehicle id="v_50" type="bike" route="r_0" depart="9" />
    <vehicle id="v_51" type="bike" route="r_1" depart="9" />
    <vehicle id="v_52" type="bike" route="r_2" depart="9" />
    <vehicle id="v_53" type="bike" route="r_3" depart="9" />
    <vehicle id="v_54" type="bike" route="r_4" depart="9" />
    <vehicle id="v_55" type="bike" route="r_5" depart="9" />
    <vehicle id="v_56" type="bike" route="r_1" depart="10" />
    <vehicle id="v_57" type="bike" route="r_2" depart="10" />
    <vehicle id="v_58" type="bike" route="r_3" depart="10" />
    <vehicle id="v_59" type="bike" route="r_4" depart="10" />
    <vehicle id="v_60" type="bike" route="r_5" depart="10" />
    <vehicle id="v_61" type="bike" route="r_0" depart="11" />
    <vehicle id="v_62" type="bike" route="r_1" depart="11" />
    <vehicle id="v_63" type="bike" route="r_2" depart="11" />
    <vehicle id="v_64" type="bike" route="r_3" depart="11" />
    <vehicle id="v_65" type="bike" route="r_4" depart="11" />
    <vehicle id="v_66" type="bike" route="r_0" depart="12" />
    <vehicle id="v_67" type="bike" route="r_1" depart="12" />
    <vehicle id="v_68" type="bike" route="r_2" depart="12" />
    <vehicle id="v_69" type="bike" route="r_3" depart="12" />
    <vehicle id="v_70" type="bike" route="r_5" depart="12" />
    <vehicle id="v_71" type="bike" route="r_0" depart="13" />
    <vehicle id="v_72" type="bike" route="r_1" depart="13" />
    <vehicle id="v_73" type="bike" route="r_2" depart="13" />
    <vehicle id="v_74" type="bike" route="r_3" depart="13" />
    <vehicle id="v_75" type="bike" route="r_4" depart="13" />
    <vehicle id="v_76" type="bike" route="r_0" depart="14" />
    <vehicle id="v_77" type="bike" route="r_1" depart="14" />
    <vehicle id="v_78" type="bike" route="r_3" depart="14" />
    <vehicle id="v_79" type="bike" route="r_4" depart="14" />
    <vehicle id="v_80" type="bike" route="r_5" depart="14" />
    <vehicle id="v_81" type="bike" route="r_0" depart="15" />
    <vehicle id="v_82" type="bike" route="r_1" depart="15" />
    <vehicle id="v_83" type="bike" route="r_2" depart="15" />
    <vehicle id="v_84" type="bike" route="r_3" depart="15" />
    <vehicle id="v_85" type="bike" route="r_4" depart="15" />
    <vehicle id="v_86" type="bike" route="r_5" depart="15" />
    <vehicle id="v_87" type="bike" route="r_1" depart="16" />
    <vehicle id="v_88" type="bike" route="r_3" depart="16" />
    <vehicle id="v_89" type="bike" route="r_4" depart="16" />
    <vehicle id="v_90" type="bike" route="r_5" depart="16" />
    <vehicle id="v_91" type="bike" route="r_0" depart="17" />
    <vehicle id="v_92" type="bike" route="r_1" depart="17" />
    <vehicle id="v_93" type="bike" route="r_2" depart="17" />
    <vehicle id="v_94" type="bike" route="r_3" depart="17" />
    <vehicle id="v_95" type="bike" route="r_4" depart="17" />
    <vehicle id="v_96" type="bike" route="r_5" depart="17" />
    <vehicle id="v_97" type="bike" route="r_0" depart="18" />
    <vehicle id="v_98" type="bike" route="r_2" depart="18" />
    <vehicle id="v_99" type="bike" route="r_3" depart="18" />
    <vehicle id="v_100" type="bike" route="r_4" depart="18" />
    <vehicle id="v_101" type="bike" route="r_5" depart="18" />
    <vehicle id="v_102" type="bike" route="r_1" depart="19" />
    <vehicle id="v_103" type="bike" route="r_2" depart="19" />
    <vehicle id="v_104" type="bike" route="r_3" depart="19" />
    <vehicle id="v_105" type="bike" route="r_4" depart="19" />
    <vehicle id="v_106" type="bike" route="r_5" depart="19" />
    <vehicle id="v_107" type="bike" route="r_0" depart="20" />
    <vehicle id="v_108" type="bike" route="r_1" depart="20" />
    <vehicle id="v_109" type="bike" route="r_2" depart="20" />
    <vehicle id="v_110" type="bike" route="r_3" depart="20" />
    <vehicle id="v_111" type="bike" route="r_4" depart="20" />
    <vehicle id="v_112" type="bike" route="r_5" depart="20" />
    <vehicle id="v_113" type="bike" route="r_0" depart="21" />
    <vehicle id="v_114" type="bike" route="r_2" depart="21" />
    <vehicle id="v_115" type="bike" route="r_3" depart="21" />
    <vehicle id="v_116" type="bike" route="r_4" depart="21" />
    <vehicle id="v_117" type="bike" route="r_5" depart="21" />
    <vehicle id="v_118" type="bike" route="r_0" depart="22" />
    <vehicle id="v_119" type="bike" route="r_2" depart="22" />
    <vehicle id="v_120" type="bike" route="r_3" depart="22" />
    <vehicle id="v_121" type="bike" route="r_4" depart="22" />
    <vehicle id="v_122" type="bike" route="r_5" depart="22" />
    <vehicle id="v_123" type="bike" route="r_0" depart="23" />
    <vehicle id="v_124" type="bike" route="r_1" depart="23" />
    <vehicle id="v_125" type="bike" route="r_2" depart="23" />
    <vehicle id="v_126" type="bike" route="r_3" depart="23" />
    <vehicle id="v_127" type="bike" route="r_4" depart="23" />
    <vehicle id="v_128" type="bike" route="r_5" depart="23" />
    <vehicle id="v_129" type="bike" route="r_0" depart="24" />
    <vehicle id="v_130" type="bike" route="r_1" depart="24" />
    <vehicle id="v_131" type="bike" route="r_2" depart="24" />
    <vehicle id="v_132" type="bike" route="r_3" depart="24" />
    <vehicle id="v_133" type="bike" route="r_4" depart="24" />
    <vehicle id="v_134" type="bike" route="r_5" depart="24" />
    <vehicle id="v_135" type="bike" route="r_1" depart="25" />
    <vehicle id="v_136" type="bike" route="r_2" depart="25" />
    <vehicle id="v_137" type="bike" route="r_3" depart="25" />
    <vehicle id="v_138" type="bike" route="r_4" depart="25" />
    <vehicle id="v_139" type="bike" route="r_5" depart="25" />
    <vehicle id="v_140" type="bike" route="r_0" depart="26" />
    <vehicle id="v_141" type="bike" route="r_1" depart="26" />
    <vehicle id="v_142" type="bike" route="r_2" depart="26" />
    <vehicle id="v_143" type="bike" route="r_3" depart="26" />
    <vehicle id="v_144" type="bike" route="r_4" depart="26" />
    <vehicle id="v_145" type="bike" route="r_5" depart="26" />
    <vehicle id="v_146" type="bike" route="r_0" depart="27" />
    <vehicle id="v_147" type="bike" route="r_2" depart="27" />
    <vehicle id="v_148" type="bike" route="r_3" depart="27" />
    <vehicle id="v_149" type="bike" route="r_4" depart="27" />
    <vehicle id="v_150" type="bike" route="r_5" depart="27" />
    <vehicle id="v_151" type="bike" route="r_0" depart="28" />
    <vehicle id="v_152" type="bike" route="r_1" depart="28" />
    <vehicle id="v_153" type="bike" route="r_3" depart="28" />
    <vehicle id="v_154" type="bike" route="r_4" depart="28" />
    <vehicle id="v_155" type="bike" route="r_5" depart="28" />
    <vehicle id="v_156" type="bike" route="r_0" depart="29" />
    <vehicle id="v_157" type="bike" route="r_1" depart="29" />
    <vehicle id="v_158" type="bike" route="r_2" depart="29" />
    <vehicle id="v_159" type="bike" route="r_3" depart="29" />
    <vehicle id="v_160" type="bike" route="r_4" depart="29" />
    <vehicle id="v_161" type="bike" route="r_5" depart="29" />
    <vehicle id="v_162" type="bike" route="r_0" depart="30" />
    <vehicle id="v_163" type="bike" route="r_1" depart="30" />
    <vehicle id="v_164" type="bike" route="r_3" depart="30" />
    <vehicle id="v_165" type="bike" route="r_4" depart="30" />
    <vehicle id="v_166" type="bike" route="r_5" depart="30" />
    <vehicle id="v_167" type="bike" route="r_0" depart="31" />
    <vehicle id="v_168" type="bike" route="r_1" depart="31" />
    <vehicle id="v_169" type="bike" route="r_2" depart="31" />
    <vehicle id="v_170" type="bike" route="r_3" depart="31" />
    <vehicle id="v_171" type="bike" route="r_4" depart="31" />
    <vehicle id="v_172" type="bike" route="r_5" depart="31" />
    <vehicle id="v_173" type="bike" route="r_0" depart="32" />
    <vehicle id="v_174" type="bike" route="r_2" depart="32" />
    <vehicle id="v_175" type="bike" route="r_3" depart="32" />
    <vehicle id="v_176" type="bike" route="r_4" depart="32" />
    <vehicle id="v_177" type="bike" route="r_5" depart="32" />
    <vehicle id="v_178" type="bike" route="r_1" depart="33" />
    <vehicle id="v_179" type="bike" route="r_4" depart="33" />
    <vehicle id="v_180" type="bike" route="r_5" depart="33" />
    <vehicle id="v_181" type="bike" route="r_0" depart="34" />
    <vehicle id="v_182" type="bike" route="r_1" depart="34" />
    <vehicle id="v_183" type="bike" route="r_2" depart="34" />
    <vehicle id="v_184" type="bike" route="r_3" depart="34" />
    <vehicle id="v_185" type="bike" route="r_4" depart="34" />
    <vehicle id="v_186" type="bike" route="r_0" depart="35" />
    <vehicle id="v_187" type="bike" route="r_1" depart="35" />
    <vehicle id="v_188" type="bike" route="r_2" depart="35" />
    <vehicle id="v_189" type="bike" route="r_3" depart="35" />
    <vehicle id="v_190" type="bike" route="r_0" depart="36" />
    <vehicle id="v_191" type="bike" route="r_1" depart="36" />
    <vehicle id="v_192" type="bike" route="r_2" depart="36" />
    <vehicle id="v_193" type="bike" route="r_3" depart="36" />
    <vehicle id="v_194" type="bike" route="r_5" depart="36" />
    <vehicle id="v_195" type="bike" route="r_0" depart="37" />
    <vehicle id="v_196" type="bike" route="r_1" depart="37" />
    <vehicle id="v_197" type="bike" route="r_2" depart="37" />
    <vehicle id="v_198" type="bike" route="r_3" depart="37" />
    <vehicle id="v_199" type="bike" route="r_4" depart="37" />
    <vehicle id="v_200" type="bike" route="r_5" depart="37" />
    <vehicle id="v_201" type="bike" route="r_0" depart="38" />
    <vehicle id="v_202" type="bike" route="r_2" depart="38" />
    <vehicle id="v_203" type="bike" route="r_3" depart="38" />
    <vehicle id="v_204" type="bike" route="r_4" depart="38" />
    <vehicle id="v_205" type="bike" route="r_5" depart="38" />
    <vehicle id="v_206" type="bike" route="r_0" depart="39" />
    <vehicle id="v_207" type="bike" route="r_1" depart="39" />
    <vehicle id="v_208" type="bike" route="r_3" depart="39" />
    <vehicle id="v_209" type="bike" route="r_4" depart="39" />
    <vehicle id="v_210" type="bike" route="r_5" depart="39" />
    <vehicle id="v_211" type="bike" route="r_0" depart="40" />
    <vehicle id="v_212" type="bike" route="r_1" depart="40" />
    <vehicle id="v_213" type="bike" route="r_2" depart="40" />
    <vehicle id="v_214" type="bike" route="r_4" depart="40" />
    <vehicle id="v_215" type="bike" route="r_5" depart="40" />
    <vehicle id="v_216" type="bike" route="r_0" depart="41" />
    <vehicle id="v_217" type="bike" route="r_1" depart="41" />
    <vehicle id="v_218" type="bike" route="r_2" depart="41" />
    <vehicle id="v_219" type="bike" route="r_3" depart="41" />
    <vehicle id="v_220" type="bike" route="r_4" depart="41" />
    <vehicle id="v_221" type="bike" route="r_5" depart="41" />
    <vehicle id="v_222" type="bike" route="r_0" depart="42" />
    <vehicle id="v_223" type="bike" route="r_1" depart="42" />
    <vehicle id="v_224" type="bike" route="r_4" depart="42" />
    <vehicle id="v_225" type="bike" route="r_5" depart="42" />
    <vehicle id="v_226" type="bike" route="r_0" depart="43" />
    <vehicle id="v_227" type="bike" route="r_2" depart="43" />
    <vehicle id="v_228" type="bike" route="r_3" depart="43" />
    <vehicle id="v_229" type="bike" route="r_4" depart="43" />
    <vehicle id="v_230" type="bike" route="r_5" depart="43" />
    <vehicle id="v_231" type="bike" route="r_0" depart="44" />
    <vehicle id="v_232" type="bike" route="r_1" depart="44" />
    <vehicle id="v_233" type="bike" route="r_2" depart="44" />
    <vehicle id="v_234" type="bike" route="r_4" depart="44" />
    <vehicle id="v_235" type="bike" route="r_5" depart="44" />
    <vehicle id="v_236" type="bike" route="r_0" depart="45" />
    <vehicle id="v_237" type="bike" route="r_1" depart="45" />
    <vehicle id="v_238" type="bike" route="r_2" depart="45" />
    <vehicle id="v_239" type="bike" route="r_4" depart="45" />
    <vehicle id="v_240" type="bike" route="r_5" depart="45" />
    <vehicle id="v_241" type="bike" route="r_0" depart="46" />
    <vehicle id="v_242" type="bike" route="r_1" depart="46" />
    <vehicle id="v_243" type="bike" route="r_2" depart="46" />
    <vehicle id="v_244" type="bike" route="r_3" depart="46" />
    <vehicle id="v_245" type="bike" route="r_4" depart="46" />
    <vehicle id="v_246" type="bike" route="r_5" depart="46" />
    <vehicle id="v_247" type="bike" route="r_0" depart="47" />
    <vehicle id="v_248" type="bike" route="r_1" depart="47" />
    <vehicle id="v_249" type="bike" route="r_2" depart="47" />
    <vehicle id="v_250" type="bike" route="r_4" depart="47" />
    <vehicle id="v_251" type="bike" route="r_5" depart="47" />
    <vehicle id="v_252" type="bike" route="r_0" depart="48" />
    <vehicle id="v_253" type="bike" route="r_1" depart="48" />
    <vehicle id="v_254" type="bike" route="r_2" depart="48" />
    <vehicle id="v_255" type="bike" route="r_3" depart="48" />
    <vehicle id="v_256" type="bike" route="r_4" depart="48" />
    <vehicle id="v_257" type="bike" route="r_5" depart="48" />
    <vehicle id="v_258" type="bike" route="r_0" depart="49" />
    <vehicle id="v_259" type="bike" route="r_1" depart="49" />
    <vehicle id="v_260" type="bike" route="r_2" depart="49" />
    <vehicle id="v_261" type="bike" route="r_3" depart="49" />
    <vehicle id="v_262" type="bike" route="r_4" depart="49" />
    <vehicle id="v_263" type="bike" route="r_5" depart="49" />
    <vehicle id="v_264" type="bike" route="r_1" depart="50" />
    <vehicle id="v_265" type="bike" route="r_2" depart="50" />
    <vehicle id="v_266" type="bike" route="r_3" depart="50" />
    <vehicle id="v_267" type="bike" route="r_4" depart="50" />
    <vehicle id="v_268" type="bike" route="r_5" depart="50" />
    <vehicle id="v_269" type="bike" route="r_0" depart="51" />
    <vehicle id="v_270" type="bike" route="r_2" depart="51" />
    <vehicle id="v_271" type="bike" route="r_3" depart="51" />
    <vehicle id="v_272" type="bike" route="r_5" depart="51" />
    <vehicle id="v_273" type="bike" route="r_0" depart="52" />
    <vehicle id="v_274" type="bike" route="r_1" depart="52" />
    <vehicle id="v_275" type="bike" route="r_2" depart="52" />
    <vehicle id="v_276" type="bike" route="r_3" depart="52" />
    <vehicle id="v_277" type="bike" route="r_4" depart="52" />
    <vehicle id="v_278" type="bike" route="r_5" depart="52" />
    <vehicle id="v_279" type="bike" route="r_0" depart="53" />
    <vehicle id="v_280" type="bike" route="r_2" depart="53" />
    <vehicle id="v_281" type="bike" route="r_4" depart="53" />
    <vehicle id="v_282" type="bike" route="r_5" depart="53" />
    <vehicle id="v_283" type="bike" route="r_0" depart="54" />
    <vehicle id="v_284" type="bike" route="r_1" depart="54" />
    <vehicle id="v_285" type="bike" route="r_2" depart="54" />
    <vehicle id="v_286" type="bike" route="r_4" depart="54" />
    <vehicle id="v_287" type="bike" route="r_5" depart="54" />
    <vehicle id="v_288" type="bike" route="r_0" depart="55" />
    <vehicle id="v_289" type="bike" route="r_1" depart="55" />
    <vehicle id="v_290" type="bike" route="r_2" depart="55" />
    <vehicle id="v_291" type="bike" route="r_3" depart="55" />
    <vehicle id="v_292" type="bike" route="r_4" depart="55" />
    <vehicle id="v_293" type="bike" route="r_5" depart="55" />
    <vehicle id="v_294" type="bike" route="r_0" depart="56" />
    <vehicle id="v_295" type="bike" route="r_1" depart="56" />
    <vehicle id="v_296" type="bike" route="r_2" depart="56" />
    <vehicle id="v_297" type="bike" route="r_3" depart="56" />
    <vehicle id="v_298" type="bike" route="r_4" depart="56" />
    <vehicle id="v_299" type="bike" route="r_5" depart="56" />
    <vehicle id="v_300" type="bike" route="r_0" depart="57" />
    <vehicle id="v_301" type="bike" route="r_1" depart="57" />
    <vehicle id="v_302" type="bike" route="r_2" depart="57" />
    <vehicle id="v_303" type="bike" route="r_3" depart="57" />
    <vehicle id="v_304" type="bike" route="r_5" depart="57" />
    <vehicle id="v_305" type="bike" route="r_0" depart="58" />
    <vehicle id="v_306" type="bike" route="r_1" depart="58" />
    <vehicle id="v_307" type="bike" route="r_3" depart="58" />
    <vehicle id="v_308" type="bike" route="r_5" depart="58" />
    <vehicle id="v_309" type="bike" route="r_1" depart="59" />
    <vehicle id="v_310" type="bike" route="r_3" depart="59" />
    <vehicle id="v_311" type="bike" route="r_4" depart="59" />
    <vehicle id="v_312" type="bike" route="r_5" depart="59" />
    <vehicle id="v_313" type="bike" route="r_0" depart="60" />
    <vehicle id="v_314" type="bike" route="r_1" depart="60" />
    <vehicle id="v_315" type="bike" route="r_2" depart="60" />
    <vehicle id="v_316" type="bike" route="r_3" depart="60" />
    <vehicle id="v_317" type="bike" route="r_4" depart="60" />
    <vehicle id="v_318" type="bike" route="r_5" depart="60" />
    <vehicle id="v_319" type="bike" route="r_0" depart="61" />
    <vehicle id="v_320" type="bike" route="r_1" depart="61" />
    <vehicle id="v_321" type="bike" route="r_2" depart="61" />
    <vehicle id="v_322" type="bike" route="r_4" depart="61" />
    <vehicle id="v_323" type="bike" route="r_5" depart="61" />
    <vehicle id="v_324" type="bike" route="r_0" depart="62" />
    <vehicle id="v_325" type="bike" route="r_1" depart="62" />
    <vehicle id="v_326" type="bike" route="r_2" depart="62" />
    <vehicle id="v_327" type="bike" route="r_3" depart="62" />
    <vehicle id="v_328" type="bike" route="r_4" depart="62" />
    <vehicle id="v_329" type="bike" route="r_5" depart="62" />
    <vehicle id="v_330" type="bike" route="r_0" depart="63" />
    <vehicle id="v_331" type="bike" route="r_1" depart="63" />
    <vehicle id="v_332" type="bike" route="r_2" depart="63" />
    <vehicle id="v_333" type="bike" route="r_3" depart="63" />
    <vehicle id="v_334" type="bike" route="r_4" depart="63" />
    <vehicle id="v_335" type="bike" route="r_5" depart="63" />
    <vehicle id="v_336" type="bike" route="r_0" depart="64" />
    <vehicle id="v_337" type="bike" route="r_1" depart="64" />
    <vehicle id="v_338" type="bike" route="r_2" depart="64" />
    <vehicle id="v_339" type="bike" route="r_3" depart="64" />
    <vehicle id="v_340" type="bike" route="r_5" depart="64" />
    <vehicle id="v_341" type="bike" route="r_1" depart="65" />
    <vehicle id="v_342" type="bike" route="r_2" depart="65" />
    <vehicle id="v_343" type="bike" route="r_3" depart="65" />
    <vehicle id="v_344" type="bike" route="r_4" depart="65" />
    <vehicle id="v_345" type="bike" route="r_5" depart="65" />
    <vehicle id="v_346" type="bike" route="r_0" depart="66" />
    <vehicle id="v_347" type="bike" route="r_1" depart="66" />
    <vehicle id="v_348" type="bike" route="r_2" depart="66" />
    <vehicle id="v_349" type="bike" route="r_3" depart="66" />
    <vehicle id="v_350" type="bike" route="r_4" depart="66" />
    <vehicle id="v_351" type="bike" route="r_5" depart="66" />
    <vehicle id="v_352" type="bike" route="r_0" depart="67" />
    <vehicle id="v_353" type="bike" route="r_2" depart="67" />
    <vehicle id="v_354" type="bike" route="r_3" depart="67" />
    <vehicle id="v_355" type="bike" route="r_4" depart="67" />
    <vehicle id="v_356" type="bike" route="r_5" depart="67" />
    <vehicle id="v_357" type="bike" route="r_0" depart="68" />
    <vehicle id="v_358" type="bike" route="r_1" depart="68" />
    <vehicle id="v_359" type="bike" route="r_2" depart="68" />
    <vehicle id="v_360" type="bike" route="r_3" depart="68" />
    <vehicle id="v_361" type="bike" route="r_4" depart="68" />
    <vehicle id="v_362" type="bike" route="r_5" depart="68" />
    <vehicle id="v_363" type="bike" route="r_0" depart="69" />
    <vehicle id="v_364" type="bike" route="r_1" depart="69" />
    <vehicle id="v_365" type="bike" route="r_2" depart="69" />
    <vehicle id="v_366" type="bike" route="r_3" depart="69" />
    <vehicle id="v_367" type="bike" route="r_4" depart="69" />
    <vehicle id="v_368" type="bike" route="r_5" depart="69" />
    <vehicle id="v_369" type="bike" route="r_0" depart="70" />
    <vehicle id="v_370" type="bike" route="r_1" depart="70" />
    <vehicle id="v_371" type="bike" route="r_2" depart="70" />
    <vehicle id="v_372" type="bike" route="r_3" depart="70" />
    <vehicle id="v_373" type="bike" route="r_4" depart="70" />
    <vehicle id="v_374" type="bike" route="r_5" depart="70" />
    <vehicle id="v_375" type="bike" route="r_0" depart="71" />
    <vehicle id="v_376" type="bike" route="r_1" depart="71" />
    <vehicle id="v_377" type="bike" route="r_2" depart="71" />
    <vehicle id="v_378" type="bike" route="r_3" depart="71" />
    <vehicle id="v_379" type="bike" route="r_4" depart="71" />
    <vehicle id="v_380" type="bike" route="r_5" depart="71" />
    <vehicle id="v_381" type="bike" route="r_0" depart="72" />
    <vehicle id="v_382" type="bike" route="r_2" depart="72" />
    <vehicle id="v_383" type="bike" route="r_3" depart="72" />
    <vehicle id="v_384" type="bike" route="r_4" depart="72" />
    <vehicle id="v_385" type="bike" route="r_5" depart="72" />
    <vehicle id="v_386" type="bike" route="r_0" depart="73" />
    <vehicle id="v_387" type="bike" route="r_1" depart="73" />
    <vehicle id="v_388" type="bike" route="r_2" depart="73" />
    <vehicle id="v_389" type="bike" route="r_4" depart="73" />
    <vehicle id="v_390" type="bike" route="r_1" depart="74" />
    <vehicle id="v_391" type="bike" route="r_2" depart="74" />
    <vehicle id="v_392" type="bike" route="r_3" depart="74" />
    <vehicle id="v_393" type="bike" route="r_4" depart="74" />
    <vehicle id="v_394" type="bike" route="r_5" depart="74" />
    <vehicle id="v_395" type="bike" route="r_1" depart="75" />
    <vehicle id="v_396" type="bike" route="r_2" depart="75" />
    <vehicle id="v_397" type="bike" route="r_3" depart="75" />
    <vehicle id="v_398" type="bike" route="r_4" depart="75" />
    <vehicle id="v_399" type="bike" route="r_5" depart="75" />
    <vehicle id="v_400" type="bike" route="r_0" depart="76" />
    <vehicle id="v_401" type="bike" route="r_1" depart="76" />
    <vehicle id="v_402" type="bike" route="r_2" depart="76" />
    <vehicle id="v_403" type="bike" route="r_3" depart="76" />
    <vehicle id="v_404" type="bike" route="r_4" depart="76" />
    <vehicle id="v_405" type="bike" route="r_5" depart="76" />
    <vehicle id="v_406" type="bike" route="r_0" depart="77" />
    <vehicle id="v_407" type="bike" route="r_1" depart="77" />
    <vehicle id="v_408" type="bike" route="r_2" depart="77" />
    <vehicle id="v_409" type="bike" route="r_3" depart="77" />
    <vehicle id="v_410" type="bike" route="r_4" depart="77" />
    <vehicle id="v_411" type="bike" route="r_5" depart="77" />
    <vehicle id="v_412" type="bike" route="r_0" depart="78" />
    <vehicle id="v_413" type="bike" route="r_1" depart="78" />
    <vehicle id="v_414" type="bike" route="r_2" depart="78" />
    <vehicle id="v_415" type="bike" route="r_3" depart="78" />
    <vehicle id="v_416" type="bike" route="r_4" depart="78" />
    <vehicle id="v_417" type="bike" route="r_5" depart="78" />
    <vehicle id="v_418" type="bike" route="r_0" depart="79" />
    <vehicle id="v_419" type="bike" route="r_2" depart="79" />
    <vehicle id="v_420" type="bike" route="r_3" depart="79" />
    <vehicle id="v_421" type="bike" route="r_4" depart="79" />
    <vehicle id="v_422" type="bike" route="r_5" depart="79" />
    <vehicle id="v_423" type="bike" route="r_0" depart="80" />
    <vehicle id="v_424" type="bike" route="r_1" depart="80" />
    <vehicle id="v_425" type="bike" route="r_2" depart="80" />
    <vehicle id="v_426" type="bike" route="r_3" depart="80" />
    <vehicle id="v_427" type="bike" route="r_4" depart="80" />
    <vehicle id="v_428" type="bike" route="r_0" depart="81" />
    <vehicle id="v_429" type="bike" route="r_1" depart="81" />
    <vehicle id="v_430" type="bike" route="r_2" depart="81" />
    <vehicle id="v_431" type="bike" route="r_3" depart="81" />
    <vehicle id="v_432" type="bike" route="r_4" depart="81" />
    <vehicle id="v_433" type="bike" route="r_5" depart="81" />
    <vehicle id="v_434" type="bike" route="r_0" depart="82" />
    <vehicle id="v_435" type="bike" route="r_1" depart="82" />
    <vehicle id="v_436" type="bike" route="r_2" depart="82" />
    <vehicle id="v_437" type="bike" route="r_3" depart="82" />
    <vehicle id="v_438" type="bike" route="r_4" depart="82" />
    <vehicle id="v_439" type="bike" route="r_5" depart="82" />
    <vehicle id="v_440" type="bike" route="r_0" depart="83" />
    <vehicle id="v_441" type="bike" route="r_1" depart="83" />
    <vehicle id="v_442" type="bike" route="r_2" depart="83" />
    <vehicle id="v_443" type="bike" route="r_3" depart="83" />
    <vehicle id="v_444" type="bike" route="r_4" depart="83" />
    <vehicle id="v_445" type="bike" route="r_5" depart="83" />
    <vehicle id="v_446" type="bike" route="r_0" depart="84" />
    <vehicle id="v_447" type="bike" route="r_1" depart="84" />
    <vehicle id="v_448" type="bike" route="r_2" depart="84" />
    <vehicle id="v_449" type="bike" route="r_3" depart="84" />
    <vehicle id="v_450" type="bike" route="r_4" depart="84" />
    <vehicle id="v_451" type="bike" route="r_5" depart="84" />
    <vehicle id="v_452" type="bike" route="r_0" depart="85" />
    <vehicle id="v_453" type="bike" route="r_1" depart="85" />
    <vehicle id="v_454" type="bike" route="r_2" depart="85" />
    <vehicle id="v_455" type="bike" route="r_3" depart="85" />
    <vehicle id="v_456" type="bike" route="r_4" depart="85" />
    <vehicle id="v_457" type="bike" route="r_5" depart="85" />
    <vehicle id="v_458" type="bike" route="r_0" depart="86" />
    <vehicle id="v_459" type="bike" route="r_1" depart="86" />
    <vehicle id="v_460" type="bike" route="r_2" depart="86" />
    <vehicle id="v_461" type="bike" route="r_3" depart="86" />
    <vehicle id="v_462" type="bike" route="r_5" depart="86" />
    <vehicle id="v_463" type="bike" route="r_0" depart="87" />
    <vehicle id="v_464" type="bike" route="r_1" depart="87" />
    <vehicle id="v_465" type="bike" route="r_2" depart="87" />
    <vehicle id="v_466" type="bike" route="r_3" depart="87" />
    <vehicle id="v_467" type="bike" route="r_5" depart="87" />
    <vehicle id="v_468" type="bike" route="r_0" depart="88" />
    <vehicle id="v_469" type="bike" route="r_1" depart="88" />
    <vehicle id="v_470" type="bike" route="r_2" depart="88" />