<?xml version="1.0" encoding="UTF-8"?>

<!-- generated on 2023-07-05 13:46:16 by Eclipse SUMO netedit Version 1.16.0
<configuration xmlns:xsi="http://www.w3.org/2001/XMLSchema-instance" xsi:noNamespaceSchemaLocation="http://sumo.dlr.de/xsd/netconvertConfiguration.xsd">

    <input>
        <sumo-net-file value="U:\PhDConnectedVRU\Projects\bikedyn-microsim\demo\config\demoCSFxSUMO.net.xml"/>
    </input>

    <output>
        <output-file value="U:\PhDConnectedVRU\Projects\bikedyn-microsim\demo\config\demoCSFxSUMO.net.xml"/>
    </output>

    <processing>
        <geometry.min-radius.fix.railways value="false"/>
        <geometry.max-grade.fix value="false"/>
        <offset.disable-normalization value="true"/>
        <lefthand value="0"/>
    </processing>

    <junctions>
        <no-turnarounds value="true"/>
        <junctions.corner-detail value="5"/>
        <junctions.limit-turn-speed value="5.50"/>
        <rectangular-lane-cut value="0"/>
    </junctions>

    <pedestrian>
        <walkingareas value="0"/>
    </pedestrian>

</configuration>
-->

<net version="1.16" junctionCornerDetail="5" limitTurnSpeed="5.50" xmlns:xsi="http://www.w3.org/2001/XMLSchema-instance" xsi:noNamespaceSchemaLocation="http://sumo.dlr.de/xsd/net_file.xsd">

    <location netOffset="0.00,0.00" convBoundary="-34.17,0.00,50.00,81.66" origBoundary="-10000000000.00,-10000000000.00,10000000000.00,10000000000.00" projParameter="!"/>

    <edge id=":J27_0" function="internal">
        <lane id=":J27_0_0" index="0" allow="bicycle" speed="13.89" length="15.35" shape="7.90,54.80 3.34,54.71 0.21,54.62 -2.90,54.83 -7.37,55.61"/>
    </edge>
    <edge id=":J27_1" function="internal">
        <lane id=":J27_1_0" index="0" allow="bicycle" speed="9.51" length="20.48" shape="7.90,54.80 2.34,54.01 -1.62,51.62 -4.01,47.66 -4.80,42.10"/>
    </edge>
    <edge id=":J27_2" function="internal">
        <lane id=":J27_2_0" index="0" speed="13.89" length="15.49" shape="7.90,51.60 3.30,51.50 0.13,51.40 -3.00,51.59 -7.52,52.37"/>
    </edge>
    <edge id=":J27_3" function="internal">
        <lane id=":J27_3_0" index="0" speed="8.08" length="14.51" shape="7.90,51.60 4.53,50.75 1.47,48.53 -0.75,45.47 -1.60,42.10"/>
    </edge>
    <edge id=":J27_4" function="internal">
        <lane id=":J27_4_0" index="0" allow="bicycle" speed="5.04" length="5.00" shape="4.80,42.10 4.99,43.46 5.58,44.43 6.54,45.01 7.90,45.20"/>
    </edge>
    <edge id=":J27_5" function="internal">
        <lane id=":J27_5_0" index="0" allow="bicycle" speed="10.18" length="19.91" shape="4.80,42.10 4.04,47.06 1.76,50.97 -2.05,53.82 -7.37,55.61"/>
    </edge>
    <edge id=":J27_6" function="internal">
        <lane id=":J27_6_0" index="0" speed="6.86" length="10.16" shape="1.60,42.10 1.99,44.86 3.18,46.83 5.14,48.01 7.90,48.40"/>
    </edge>
    <edge id=":J27_7" function="internal">
        <lane id=":J27_7_0" index="0" speed="8.77" length="14.54" shape="1.60,42.10 0.81,45.34 -1.28,48.46 -4.20,50.96 -7.52,52.37"/>
    </edge>
    <edge id=":J27_8" function="internal">
        <lane id=":J27_8_0" index="0" allow="bicycle" speed="5.45" length="5.32" shape="-7.81,45.85 -6.49,45.45 -5.55,44.69 -4.99,43.57 -4.80,42.10"/>
    </edge>
    <edge id=":J27_9" function="internal">
        <lane id=":J27_9_0" index="0" allow="bicycle" speed="13.89" length="15.76" shape="-7.81,45.85 -3.18,45.25 0.01,45.08 3.22,45.14 7.90,45.20"/>
    </edge>
    <edge id=":J27_10" function="internal">
        <lane id=":J27_10_0" index="0" speed="7.27" length="10.22" shape="-7.67,49.07 -5.01,48.29 -3.12,46.87 -1.98,44.80 -1.60,42.10"/>
    </edge>
    <edge id=":J27_11" function="internal">
        <lane id=":J27_11_0" index="0" speed="13.89" length="15.61" shape="-7.67,49.07 -3.08,48.47 0.08,48.30 3.26,48.34 7.90,48.40"/>
    </edge>

    <edge id="-E29" from="J27" to="J26" priority="-1" shape="0.00,50.00 -2.02,50.09 -3.98,50.24 -5.87,50.47 -7.71,50.78 -9.49,51.15 -11.21,51.59 -12.86,52.11 -14.46,52.70 -16.00,53.36 -17.48,54.09 -18.90,54.90 -20.25,55.78 -21.55,56.72 -22.79,57.74 -23.97,58.83 -25.09,60.00 -26.15,61.23 -27.14,62.54 -28.08,63.92 -28.96,65.37 -29.78,66.89 -30.54,68.49 -31.24,70.15 -31.88,71.89 -32.45,73.70 -32.97,75.58 -33.43,77.54 -33.83,79.56 -34.17,81.66">
        <lane id="-E29_0" index="0" allow="bicycle" speed="13.89" length="39.62" shape="-7.37,55.61 -8.41,55.83 -9.89,56.21 -11.31,56.65 -12.68,57.16 -13.99,57.72 -15.23,58.33 -16.40,59.00 -17.53,59.74 -18.62,60.52 -19.64,61.36 -20.61,62.25 -21.54,63.23 -22.41,64.25 -23.24,65.34 -24.04,66.52 -24.79,67.75 -25.50,69.06 -26.16,70.45 -26.77,71.91 -27.34,73.44 -27.85,75.06 -28.32,76.77 -28.74,78.55 -29.11,80.41 -29.43,82.43"/>
        <lane id="-E29_1" index="1" speed="13.89" length="39.62" shape="-7.52,52.37 -9.13,52.71 -10.77,53.13 -12.34,53.62 -13.87,54.19 -15.33,54.81 -16.73,55.50 -18.07,56.27 -19.34,57.10 -20.57,57.99 -21.74,58.95 -22.85,59.97 -23.91,61.08 -24.90,62.24 -25.84,63.47 -26.73,64.79 -27.57,66.16 -28.35,67.61 -29.08,69.14 -29.75,70.74 -30.37,72.41 -30.92,74.15 -31.42,75.98 -31.87,77.88 -32.26,79.84 -32.59,81.92"/>
    </edge>
    <edge id="-E30" from="J28" to="J27" priority="-1" shape="50.00,50.00 16.80,50.00 0.00,50.00">
        <lane id="-E30_0" index="0" allow="bicycle" speed="13.89" length="42.10" shape="50.00,54.80 16.80,54.80 7.90,54.80"/>
        <lane id="-E30_1" index="1" speed="13.89" length="42.10" shape="50.00,51.60 16.80,51.60 7.90,51.60"/>
    </edge>
    <edge id="-E31" from="J29" to="J27" priority="-1">
        <lane id="-E31_0" index="0" allow="bicycle" speed="13.89" length="42.10" shape="4.80,0.00 4.80,42.10"/>
        <lane id="-E31_1" index="1" speed="13.89" length="42.10" shape="1.60,0.00 1.60,42.10"/>
    </edge>
    <edge id="E29" from="J26" to="J27" priority="-1" shape="-34.17,81.66 -33.85,79.54 -33.47,77.50 -33.02,75.53 -32.52,73.63 -31.95,71.81 -31.33,70.06 -30.64,68.38 -29.89,66.77 -29.08,65.24 -28.20,63.78 -27.27,62.40 -26.28,61.09 -25.22,59.85 -24.10,58.69 -22.93,57.59 -21.69,56.57 -20.39,55.63 -19.02,54.76 -17.60,53.96 -16.12,53.23 -14.57,52.58 -12.96,52.00 -11.29,51.50 -9.57,51.06 -7.77,50.70 -5.92,50.42 -4.01,50.21 -2.04,50.07 0.00,50.00">
        <lane id="E29_0" index="0" allow="bicycle" speed="13.89" length="48.59" shape="-38.92,80.94 -38.58,78.74 -38.17,76.53 -37.68,74.39 -37.13,72.30 -36.50,70.29 -35.81,68.35 -35.04,66.46 -34.19,64.63 -33.26,62.88 -32.25,61.20 -31.18,59.61 -30.02,58.08 -28.77,56.62 -27.47,55.27 -26.10,53.98 -24.62,52.77 -23.08,51.66 -21.49,50.64 -19.84,49.71 -18.11,48.86 -16.31,48.11 -14.46,47.44 -12.57,46.87 -10.63,46.38 -8.60,45.97 -7.81,45.85"/>
        <lane id="E29_1" index="1" speed="13.89" length="48.59" shape="-35.75,81.42 -35.43,79.27 -35.04,77.18 -34.57,75.15 -34.06,73.19 -33.47,71.30 -32.82,69.49 -32.11,67.74 -31.32,66.06 -30.47,64.45 -29.55,62.92 -28.57,61.47 -27.53,60.09 -26.40,58.77 -25.22,57.55 -23.99,56.39 -22.67,55.30 -21.29,54.31 -19.84,53.39 -18.35,52.54 -16.78,51.77 -15.15,51.09 -13.46,50.48 -11.72,49.96 -9.92,49.50 -8.05,49.12 -7.67,49.07"/>
    </edge>
    <edge id="E30" from="J27" to="J28" priority="-1">
        <lane id="E30_0" index="0" allow="bicycle" speed="13.89" length="42.10" shape="7.90,45.20 50.00,45.20"/>
        <lane id="E30_1" index="1" speed="13.89" length="42.10" shape="7.90,48.40 50.00,48.40"/>
    </edge>
    <edge id="E31" from="J27" to="J29" priority="-1">
        <lane id="E31_0" index="0" allow="bicycle" speed="13.89" length="42.10" shape="-4.80,42.10 -4.80,0.00"/>
        <lane id="E31_1" index="1" speed="13.89" length="42.10" shape="-1.60,42.10 -1.60,0.00"/>
    </edge>

    <junction id="J26" type="dead_end" x="-34.17" y="81.66" incLanes="-E29_0 -E29_1" intLanes="" shape="-34.17,81.66 -40.50,80.70 -27.85,82.68"/>
    <junction id="J27" type="unregulated" x="0.00" y="50.00" incLanes="-E30_0 -E30_1 -E31_0 -E31_1 E29_0 E29_1" intLanes=":J27_0_0 :J27_1_0 :J27_2_0 :J27_3_0 :J27_4_0 :J27_5_0 :J27_6_0 :J27_7_0 :J27_8_0 :J27_9_0 :J27_10_0 :J27_11_0" shape="7.90,56.40 7.90,43.60 7.07,43.43 6.77,43.23 6.57,42.93 6.44,42.56 6.40,42.10 -6.40,42.10 -6.56,43.19 -6.77,43.60 -7.06,43.91 -7.43,44.12 -7.88,44.25 -7.30,57.23 -4.11,56.63 -1.74,56.33 0.24,56.23 2.23,56.27 4.65,56.35"/>
    <junction id="J28" type="dead_end" x="50.00" y="50.00" incLanes="E30_0 E30_1" intLanes="" shape="50.00,50.00 50.00,43.60 50.00,50.00"/>
    <junction id="J29" type="dead_end" x="0.00" y="0.00" incLanes="E31_0 E31_1" intLanes="" shape="0.00,0.00 -6.40,0.00 0.00,0.00"/>

    <connection from="-E30" to="-E29" fromLane="0" toLane="0" via=":J27_0_0" dir="s" state="M"/>
    <connection from="-E30" to="E31" fromLane="0" toLane="0" via=":J27_1_0" dir="l" state="M"/>
    <connection from="-E30" to="-E29" fromLane="1" toLane="1" via=":J27_2_0" dir="s" state="M"/>
    <connection from="-E30" to="E31" fromLane="1" toLane="1" via=":J27_3_0" dir="l" state="M"/>
    <connection from="-E31" to="E30" fromLane="0" toLane="0" via=":J27_4_0" dir="r" state="M"/>
    <connection from="-E31" to="-E29" fromLane="0" toLane="0" via=":J27_5_0" dir="l" state="M"/>
    <connection from="-E31" to="E30" fromLane="1" toLane="1" via=":J27_6_0" dir="r" state="M"/>
    <connection from="-E31" to="-E29" fromLane="1" toLane="1" via=":J27_7_0" dir="l" state="M"/>
    <connection from="E29" to="E31" fromLane="0" toLane="0" via=":J27_8_0" dir="r" state="M"/>
    <connection from="E29" to="E30" fromLane="0" toLane="0" via=":J27_9_0" dir="s" state="M"/>
    <connection from="E29" to="E31" fromLane="1" toLane="1" via=":J27_10_0" dir="r" state="M"/>
    <connection from="E29" to="E30" fromLane="1" toLane="1" via=":J27_11_0" dir="s" state="M"/>

    <connection from=":J27_0" to="-E29" fromLane="0" toLane="0" dir="s" state="M"/>
    <connection from=":J27_1" to="E31" fromLane="0" toLane="0" dir="l" state="M"/>
    <connection from=":J27_2" to="-E29" fromLane="0" toLane="1" dir="s" state="M"/>
    <connection from=":J27_3" to="E31" fromLane="0" toLane="1" dir="l" state="M"/>
    <connection from=":J27_4" to="E30" fromLane="0" toLane="0" dir="r" state="M"/>
    <connection from=":J27_5" to="-E29" fromLane="0" toLane="0" dir="l" state="M"/>
    <connection from=":J27_6" to="E30" fromLane="0" toLane="1" dir="r" state="M"/>
    <connection from=":J27_7" to="-E29" fromLane="0" toLane="1" dir="l" state="M"/>
    <connection from=":J27_8" to="E31" fromLane="0" toLane="0" dir="r" state="M"/>
    <connection from=":J27_9" to="E30" fromLane="0" toLane="0" dir="s" state="M"/>
    <connection from=":J27_10" to="E31" fromLane="0" toLane="1" dir="r" state="M"/>
    <connection from=":J27_11" to="E30" fromLane="0" toLane="1" dir="s" state="M"/>

</net>
