<routes>
    <!-- Bicycle Vehicle Type -->
    <vType id="bike" vClass="bicycle" jmIgnoreJunctionFoeProb="1" jmIgnoreFoeProb="1"/>
    <!-- Routes -->
    <route id="r0" edges="-E1 E2" />
    <route id="r1" edges="-E1 E0 E7 E30 E4" />
    <route id="r2" edges="-E1 E0 E7 E30 -E3 -E0 E2" />
    <route id="r3" edges="-E1 E0 E7 E30 -E3 -E0 E1" />
    <route id="r4" edges="-E1 E0 E7 E30 -E3 -E0 -E31 -E29" />
    <route id="r5" edges="-E1 E0 E3 E4" />
    <route id="r6" edges="-E1 E0 E3 -E30 -E29" />
    <route id="r7" edges="-E1 E0 E3 -E30 E31 E2" />
    <route id="r8" edges="-E1 E0 E3 -E30 E31 E1" />
    <route id="r9" edges="E29 E30 E4" />
    <route id="r10" edges="E29 E30 -E3 E7 -E29" />
    <route id="r11" edges="E29 E30 -E3 E7 E31 E2" />
    <route id="r12" edges="-E4 -E30 -E29" />
    <route id="r13" edges="-E4 -E3 -E0 E2" />
    <route id="r14" edges="-E4 -E3 E7 E31 E1" />
    <route id="r15" edges="-E2 -E31 E30 E4" />
    <route id="r16" edges="-E2 E0 E3 E4" />
    <route id="r17" edges="-E2 -E31 -E29" />
    <!-- Bikes -->
    <vehicle id="b0" type="bike" route="r0" depart="0" />
    <vehicle id="b2" type="bike" route="r2" depart="0" />
    <vehicle id="b3" type="bike" route="r3" depart="0" />
    <vehicle id="b4" type="bike" route="r4" depart="0" />
    <vehicle id="b5" type="bike" route="r5" depart="0" />
    <vehicle id="b6" type="bike" route="r6" depart="0" />
    <vehicle id="b7" type="bike" route="r7" depart="0" />
    <vehicle id="b10" type="bike" route="r10" depart="0" />
    <vehicle id="b13" type="bike" route="r13" depart="0" />
    <vehicle id="b14" type="bike" route="r14" depart="0" />
    <vehicle id="b15" type="bike" route="r15" depart="0" />
    <vehicle id="b16" type="bike" route="r16" depart="0" />
    <vehicle id="b17" type="bike" route="r17" depart="0" />
    <vehicle id="b22" type="bike" route="r4" depart="1" />
    <vehicle id="b27" type="bike" route="r9" depart="1" />
    <vehicle id="b28" type="bike" route="r10" depart="1" />
    <vehicle id="b33" type="bike" route="r15" depart="1" />
    <vehicle id="b37" type="bike" route="r1" depart="2" />
    <vehicle id="b38" type="bike" route="r2" depart="2" />
    <vehicle id="b40" type="bike" route="r4" depart="2" />
    <vehicle id="b41" type="bike" route="r5" depart="2" />
    <vehicle id="b44" type="bike" route="r8" depart="2" />
    <vehicle id="b47" type="bike" route="r11" depart="2" />
    <vehicle id="b48" type="bike" route="r12" depart="2" />
    <vehicle id="b49" type="bike" route="r13" depart="2" />
    <vehicle id="b52" type="bike" route="r16" depart="2" />
    <vehicle id="b54" type="bike" route="r0" depart="3" />
    <vehicle id="b55" type="bike" route="r1" depart="3" />
    <vehicle id="b56" type="bike" route="r2" depart="3" />
    <vehicle id="b58" type="bike" route="r4" depart="3" />
    <vehicle id="b59" type="bike" route="r5" depart="3" />
    <vehicle id="b61" type="bike" route="r7" depart="3" />
    <vehicle id="b66" type="bike" route="r12" depart="3" />
    <vehicle id="b68" type="bike" route="r14" depart="3" />
    <vehicle id="b70" type="bike" route="r16" depart="3" />
    <vehicle id="b71" type="bike" route="r17" depart="3" />
    <vehicle id="b72" type="bike" route="r0" depart="4" />
    <vehicle id="b73" type="bike" route="r1" depart="4" />
    <vehicle id="b76" type="bike" route="r4" depart="4" />
    <vehicle id="b82" type="bike" route="r10" depart="4" />
    <vehicle id="b83" type="bike" route="r11" depart="4" />
    <vehicle id="b84" type="bike" route="r12" depart="4" />
    <vehicle id="b87" type="bike" route="r15" depart="4" />
    <vehicle id="b89" type="bike" route="r17" depart="4" />
    <vehicle id="b93" type="bike" route="r3" depart="5" />
    <vehicle id="b95" type="bike" route="r5" depart="5" />
    <vehicle id="b96" type="bike" route="r6" depart="5" />
    <vehicle id="b97" type="bike" route="r7" depart="5" />
    <vehicle id="b101" type="bike" route="r11" depart="5" />
    <vehicle id="b102" type="bike" route="r12" depart="5" />
    <vehicle id="b103" type="bike" route="r13" depart="5" />
    <vehicle id="b104" type="bike" route="r14" depart="5" />
    <vehicle id="b109" type="bike" route="r1" depart="6" />
    <vehicle id="b111" type="bike" route="r3" depart="6" />
    <vehicle id="b112" type="bike" route="r4" depart="6" />
    <vehicle id="b118" type="bike" route="r10" depart="6" />
    <vehicle id="b119" type="bike" route="r11" depart="6" />
    <vehicle id="b124" type="bike" route="r16" depart="6" />
    <vehicle id="b125" type="bike" route="r17" depart="6" />
    <vehicle id="b126" type="bike" route="r0" depart="7" />
    <vehicle id="b128" type="bike" route="r2" depart="7" />
    <vehicle id="b131" type="bike" route="r5" depart="7" />
    <vehicle id="b133" type="bike" route="r7" depart="7" />
    <vehicle id="b135" type="bike" route="r9" depart="7" />
    <vehicle id="b136" type="bike" route="r10" depart="7" />
    <vehicle id="b137" type="bike" route="r11" depart="7" />
    <vehicle id="b138" type="bike" route="r12" depart="7" />
    <vehicle id="b139" type="bike" route="r13" depart="7" />
    <vehicle id="b140" type="bike" route="r14" depart="7" />
    <vehicle id="b141" type="bike" route="r15" depart="7" />
    <vehicle id="b142" type="bike" route="r16" depart="7" />
    <vehicle id="b146" type="bike" route="r2" depart="8" />
    <vehicle id="b147" type="bike" route="r3" depart="8" />
    <vehicle id="b149" type="bike" route="r5" depart="8" />
    <vehicle id="b150" type="bike" route="r6" depart="8" />
    <vehicle id="b151" type="bike" route="r7" depart="8" />
    <vehicle id="b152" type="bike" route="r8" depart="8" />
    <vehicle id="b153" type="bike" route="r9" depart="8" />
    <vehicle id="b154" type="bike" route="r10" depart="8" />
    <vehicle id="b157" type="bike" route="r13" depart="8" />
    <vehicle id="b160" type="bike" route="r16" depart="8" />
    <vehicle id="b168" type="bike" route="r6" depart="9" />
    <vehicle id="b169" type="bike" route="r7" depart="9" />
    <vehicle id="b170" type="bike" route="r8" depart="9" />
    <vehicle id="b172" type="bike" route="r10" depart="9" />
    <vehicle id="b173" type="bike" route="r11" depart="9" />
    <vehicle id="b174" type="bike" route="r12" depart="9" />
    <vehicle id="b177" type="bike" route="r15" depart="9" />
    <vehicle id="b178" type="bike" route="r16" depart="9" />
    <vehicle id="b182" type="bike" route="r2" depart="10" />
    <vehicle id="b184" type="bike" route="r4" depart="10" />
    <vehicle id="b185" type="bike" route="r5" depart="10" />
    <vehicle id="b186" type="bike" route="r6" depart="10" />
    <vehicle id="b187" type="bike" route="r7" depart="10" />
    <vehicle id="b188" type="bike" route="r8" depart="10" />
    <vehicle id="b189" type="bike" route="r9" depart="10" />
    <vehicle id="b195" type="bike" route="r15" depart="10" />
    <vehicle id="b198" type="bike" route="r0" depart="11" />
    <vehicle id="b203" type="bike" route="r5" depart="11" />
    <vehicle id="b204" type="bike" route="r6" depart="11" />
    <vehicle id="b205" type="bike" route="r7" depart="11" />
    <vehicle id="b206" type="bike" route="r8" depart="11" />
    <vehicle id="b207" type="bike" route="r9" depart="11" />
    <vehicle id="b211" type="bike" route="r13" depart="11" />
    <vehicle id="b213" type="bike" route="r15" depart="11" />
    <vehicle id="b214" type="bike" route="r16" depart="11" />
    <vehicle id="b216" type="bike" route="r0" depart="12" />
    <vehicle id="b218" type="bike" route="r2" depart="12" />
    <vehicle id="b224" type="bike" route="r8" depart="12" />
    <vehicle id="b226" type="bike" route="r10" depart="12" />
    <vehicle id="b229" type="bike" route="r13" depart="12" />
    <vehicle id="b231" type="bike" route="r15" depart="12" />
    <vehicle id="b233" type="bike" route="r17" depart="12" />
    <vehicle id="b234" type="bike" route="r0" depart="13" />
    <vehicle id="b235" type="bike" route="r1" depart="13" />
    <vehicle id="b238" type="bike" route="r4" depart="13" />
    <vehicle id="b239" type="bike" route="r5" depart="13" />
    <vehicle id="b242" type="bike" route="r8" depart="13" />
    <vehicle id="b245" type="bike" route="r11" depart="13" />
    <vehicle id="b247" type="bike" route="r13" depart="13" />
    <vehicle id="b248" type="bike" route="r14" depart="13" />
    <vehicle id="b250" type="bike" route="r16" depart="13" />
    <vehicle id="b253" type="bike" route="r1" depart="14" />
    <vehicle id="b254" type="bike" route="r2" depart="14" />
    <vehicle id="b255" type="bike" route="r3" depart="14" />
    <vehicle id="b256" type="bike" route="r4" depart="14" />
    <vehicle id="b257" type="bike" route="r5" depart="14" />
    <vehicle id="b258" type="bike" route="r6" depart="14" />
    <vehicle id="b259" type="bike" route="r7" depart="14" />
    <vehicle id="b260" type="bike" route="r8" depart="14" />
    <vehicle id="b261" type="bike" route="r9" depart="14" />
    <vehicle id="b263" type="bike" route="r11" depart="14" />
    <vehicle id="b264" type="bike" route="r12" depart="14" />
    <vehicle id="b265" type="bike" route="r13" depart="14" />
    <vehicle id="b268" type="bike" route="r16" depart="14" />
    <vehicle id="b270" type="bike" route="r0" depart="15" />
    <vehicle id="b274" type="bike" route="r4" depart="15" />
    <vehicle id="b275" type="bike" route="r5" depart="15" />
    <vehicle id="b277" type="bike" route="r7" depart="15" />
    <vehicle id="b286" type="bike" route="r16" depart="15" />
    <vehicle id="b295" type="bike" route="r7" depart="16" />
    <vehicle id="b296" type="bike" route="r8" depart="16" />
    <vehicle id="b298" type="bike" route="r10" depart="16" />
    <vehicle id="b300" type="bike" route="r12" depart="16" />
    <vehicle id="b305" type="bike" route="r17" depart="16" />
    <vehicle id="b308" type="bike" route="r2" depart="17" />
    <vehicle id="b310" type="bike" route="r4" depart="17" />
    <vehicle id="b315" type="bike" route="r9" depart="17" />
    <vehicle id="b319" type="bike" route="r13" depart="17" />
    <vehicle id="b320" type="bike" route="r14" depart="17" />
    <vehicle id="b321" type="bike" route="r15" depart="17" />
    <vehicle id="b323" type="bike" route="r17" depart="17" />
    <vehicle id="b327" type="bike" route="r3" depart="18" />
    <vehicle id="b332" type="bike" route="r8" depart="18" />
    <vehicle id="b333" type="bike" route="r9" depart="18" />
    <vehicle id="b334" type="bike" route="r10" depart="18" />
    <vehicle id="b337" type="bike" route="r13" depart="18" />
    <vehicle id="b341" type="bike" route="r17" depart="18" />
    <vehicle id="b343" type="bike" route="r1" depart="19" />
    <vehicle id="b350" type="bike" route="r8" depart="19" />
    <vehicle id="b351" type="bike" route="r9" depart="19" />
    <vehicle id="b354" type="bike" route="r12" depart="19" />
    <vehicle id="b355" type="bike" route="r13" depart="19" />
    <vehicle id="b358" type="bike" route="r16" depart="19" />
    <vehicle id="b359" type="bike" route="r17" depart="19" />
    <vehicle id="b360" type="bike" route="r0" depart="20" />
    <vehicle id="b361" type="bike" route="r1" depart="20" />
    <vehicle id="b362" type="bike" route="r2" depart="20" />
    <vehicle id="b363" type="bike" route="r3" depart="20" />
    <vehicle id="b370" type="bike" route="r10" depart="20" />
    <vehicle id="b377" type="bike" route="r17" depart="20" />
    <vehicle id="b378" type="bike" route="r0" depart="21" />
    <vehicle id="b380" type="bike" route="r2" depart="21" />
    <vehicle id="b388" type="bike" route="r10" depart="21" />
    <vehicle id="b389" type="bike" route="r11" depart="21" />
    <vehicle id="b390" type="bike" route="r12" depart="21" />
    <vehicle id="b392" type="bike" route="r14" depart="21" />
    <vehicle id="b396" type="bike" route="r0" depart="22" />
    <vehicle id="b397" type="bike" route="r1" depart="22" />
    <vehicle id="b398" type="bike" route="r2" depart="22" />
    <vehicle id="b401" type="bike" route="r5" depart="22" />
    <vehicle id="b406" type="bike" route="r10" depart="22" />
    <vehicle id="b410" type="bike" route="r14" depart="22" />
    <vehicle id="b412" type="bike" route="r16" depart="22" />
    <vehicle id="b414" type="bike" route="r0" depart="23" />
    <vehicle id="b415" type="bike" route="r1" depart="23" />
    <vehicle id="b416" type="bike" route="r2" depart="23" />
    <vehicle id="b417" type="bike" route="r3" depart="23" />
    <vehicle id="b418" type="bike" route="r4" depart="23" />
    <vehicle id="b421" type="bike" route="r7" depart="23" />
    <vehicle id="b423" type="bike" route="r9" depart="23" />
    <vehicle id="b424" type="bike" route="r10" depart="23" />
    <vehicle id="b425" type="bike" route="r11" depart="23" />
    <vehicle id="b436" type="bike" route="r4" depart="24" />
    <vehicle id="b437" type="bike" route="r5" depart="24" />
    <vehicle id="b438" type="bike" route="r6" depart="24" />
    <vehicle id="b439" type="bike" route="r7" depart="24" />
    <vehicle id="b443" type="bike" route="r11" depart="24" />
    <vehicle id="b447" type="bike" route="r15" depart="24" />
    <vehicle id="b450" type="bike" route="r0" depart="25" />
    <vehicle id="b454" type="bike" route="r4" depart="25" />
    <vehicle id="b456" type="bike" route="r6" depart="25" />
    <vehicle id="b460" type="bike" route="r10" depart="25" />
    <vehicle id="b462" type="bike" route="r12" depart="25" />
    <vehicle id="b466" type="bike" route="r16" depart="25" />
    <vehicle id="b467" type="bike" route="r17" depart="25" />
    <vehicle id="b471" type="bike" route="r3" depart="26" />
    <vehicle id="b474" type="bike" route="r6" depart="26" />
    <vehicle id="b475" type="bike" route="r7" depart="26" />
    <vehicle id="b477" type="bike" route="r9" depart="26" />
    <vehicle id="b478" type="bike" route="r10" depart="26" />
    <vehicle id="b479" type="bike" route="r11" depart="26" />
    <vehicle id="b481" type="bike" route="r13" depart="26" />
    <vehicle id="b483" type="bike" route="r15" depart="26" />
    <vehicle id="b488" type="bike" route="r2" depart="27" />
    <vehicle id="b489" type="bike" route="r3" depart="27" />
    <vehicle id="b491" type="bike" route="r5" depart="27" />
    <vehicle id="b494" type="bike" route="r8" depart="27" />
    <vehicle id="b495" type="bike" route="r9" depart="27" />
    <vehicle id="b498" type="bike" route="r12" depart="27" />
    <vehicle id="b503" type="bike" route="r17" depart="27" />
    <vehicle id="b505" type="bike" route="r1" depart="28" />
    <vehicle id="b506" type="bike" route="r2" depart="28" />
    <vehicle id="b508" type="bike" route="r4" depart="28" />
    <vehicle id="b509" type="bike" route="r5" depart="28" />
    <vehicle id="b511" type="bike" route="r7" depart="28" />
    <vehicle id="b514" type="bike" route="r10" depart="28" />
    <vehicle id="b517" type="bike" route="r13" depart="28" />
    <vehicle id="b522" type="bike" route="r0" depart="29" />
    <vehicle id="b531" type="bike" route="r9" depart="29" />
    <vehicle id="b535" type="bike" route="r13" depart="29" />
    <vehicle id="b538" type="bike" route="r16" depart="29" />
    <vehicle id="b539" type="bike" route="r17" depart="29" />
    <vehicle id="b540" type="bike" route="r0" depart="30" />
    <vehicle id="b544" type="bike" route="r4" depart="30" />
    <vehicle id="b546" type="bike" route="r6" depart="30" />
    <vehicle id="b547" type="bike" route="r7" depart="30" />
    <vehicle id="b549" type="bike" route="r9" depart="30" />
    <vehicle id="b551" type="bike" route="r11" depart="30" />
    <vehicle id="b556" type="bike" route="r16" depart="30" />
    <vehicle id="b557" type="bike" route="r17" depart="30" />
    <vehicle id="b566" type="bike" route="r8" depart="31" />
    <vehicle id="b567" type="bike" route="r9" depart="31" />
    <vehicle id="b568" type="bike" route="r10" depart="31" />
    <vehicle id="b569" type="bike" route="r11" depart="31" />
    <vehicle id="b570" type="bike" route="r12" depart="31" />
    <vehicle id="b571" type="bike" route="r13" depart="31" />
    <vehicle id="b572" type="bike" route="r14" depart="31" />
    <vehicle id="b574" type="bike" route="r16" depart="31" />
    <vehicle id="b575" type="bike" route="r17" depart="31" />
    <vehicle id="b578" type="bike" route="r2" depart="32" />
    <vehicle id="b580" type="bike" route="r4" depart="32" />
    <vehicle id="b581" type="bike" route="r5" depart="32" />
    <vehicle id="b584" type="bike" route="r8" depart="32" />
    <vehicle id="b586" type="bike" route="r10" depart="32" />
    <vehicle id="b587" type="bike" route="r11" depart="32" />
    <vehicle id="b588" type="bike" route="r12" depart="32" />
    <vehicle id="b591" type="bike" route="r15" depart="32" />
    <vehicle id="b594" type="bike" route="r0" depart="33" />
    <vehicle id="b597" type="bike" route="r3" depart="33" />
    <vehicle id="b598" type="bike" route="r4" depart="33" />
    <vehicle id="b599" type="bike" route="r5" depart="33" />
    <vehicle id="b600" type="bike" route="r6" depart="33" />
    <vehicle id="b603" type="bike" route="r9" depart="33" />
    <vehicle id="b607" type="bike" route="r13" depart="33" />
    <vehicle id="b612" type="bike" route="r0" depart="34" />
    <vehicle id="b613" type="bike" route="r1" depart="34" />
    <vehicle id="b615" type="bike" route="r3" depart="34" />
    <vehicle id="b617" type="bike" route="r5" depart="34" />
    <vehicle id="b618" type="bike" route="r6" depart="34" />
    <vehicle id="b621" type="bike" route="r9" depart="34" />
    <vehicle id="b622" type="bike" route="r10" depart="34" />
    <vehicle id="b626" type="bike" route="r14" depart="34" />
    <vehicle id="b627" type="bike" route="r15" depart="34" />
    <vehicle id="b628" type="bike" route="r16" depart="34" />
    <vehicle id="b632" type="bike" route="r2" depart="35" />
    <vehicle id="b634" type="bike" route="r4" depart="35" />
    <vehicle id="b638" type="bike" route="r8" depart="35" />
    <vehicle id="b640" type="bike" route="r10" depart="35" />
    <vehicle id="b643" type="bike" route="r13" depart="35" />
    <vehicle id="b645" type="bike" route="r15" depart="35" />
    <vehicle id="b646" type="bike" route="r16" depart="35" />
    <vehicle id="b649" type="bike" route="r1" depart="36" />
    <vehicle id="b654" type="bike" route="r6" depart="36" />
    <vehicle id="b657" type="bike" route="r9" depart="36" />
    <vehicle id="b660" type="bike" route="r12" depart="36" />
    <vehicle id="b662" type="bike" route="r14" depart="36" />
    <vehicle id="b665" type="bike" route="r17" depart="36" />
    <vehicle id="b666" type="bike" route="r0" depart="37" />
    <vehicle id="b668" type="bike" route="r2" depart="37" />
    <vehicle id="b669" type="bike" route="r3" depart="37" />
    <vehicle id="b672" type="bike" route="r6" depart="37" />
    <vehicle id="b676" type="bike" route="r10" depart="37" />
    <vehicle id="b678" type="bike" route="r12" depart="37" />
    <vehicle id="b681" type="bike" route="r15" depart="37" />
    <vehicle id="b682" type="bike" route="r16" depart="37" />
    <vehicle id="b691" type="bike" route="r7" depart="38" />
    <vehicle id="b694" type="bike" route="r10" depart="38" />
    <vehicle id="b696" type="bike" route="r12" depart="38" />
    <vehicle id="b698" type="bike" route="r14" depart="38" />
    <vehicle id="b699" type="bike" route="r15" depart="38" />
    <vehicle id="b703" type="bike" route="r1" depart="39" />
    <vehicle id="b705" type="bike" route="r3" depart="39" />
    <vehicle id="b707" type="bike" route="r5" depart="39" />
    <vehicle id="b709" type="bike" route="r7" depart="39" />
    <vehicle id="b714" type="bike" route="r12" depart="39" />
    <vehicle id="b717" type="bike" route="r15" depart="39" />
    <vehicle id="b719" type="bike" route="r17" depart="39" />
    <vehicle id="b720" type="bike" route="r0" depart="40" />
    <vehicle id="b722" type="bike" route="r2" depart="40" />
    <vehicle id="b723" type="bike" route="r3" depart="40" />
    <vehicle id="b724" type="bike" route="r4" depart="40" />
    <vehicle id="b726" type="bike" route="r6" depart="40" />
    <vehicle id="b728" type="bike" route="r8" depart="40" />
    <vehicle id="b729" type="bike" route="r9" depart="40" />
    <vehicle id="b730" type="bike" route="r10" depart="40" />
    <vehicle id="b733" type="bike" route="r13" depart="40" />
    <vehicle id="b734" type="bike" route="r14" depart="40" />
    <vehicle id="b735" type="bike" route="r15" depart="40" />
    <vehicle id="b736" type="bike" route="r16" depart="40" />
    <vehicle id="b737" type="bike" route="r17" depart="40" />
    <vehicle id="b739" type="bike" route="r1" depart="41" />
    <vehicle id="b740" type="bike" route="r2" depart="41" />
    <vehicle id="b741" type="bike" route="r3" depart="41" />
    <vehicle id="b743" type="bike" route="r5" depart="41" />
    <vehicle id="b744" type="bike" route="r6" depart="41" />
    <vehicle id="b750" type="bike" route="r12" depart="41" />
    <vehicle id="b753" type="bike" route="r15" depart="41" />
    <vehicle id="b755" type="bike" route="r17" depart="41" />
    <vehicle id="b756" type="bike" route="r0" depart="42" />
    <vehicle id="b761" type="bike" route="r5" depart="42" />
    <vehicle id="b764" type="bike" route="r8" depart="42" />
    <vehicle id="b765" type="bike" route="r9" depart="42" />
    <vehicle id="b766" type="bike" route="r10" depart="42" />
    <vehicle id="b772" type="bike" route="r16" depart="42" />
    <vehicle id="b774" type="bike" route="r0" depart="43" />
    <vehicle id="b775" type="bike" route="r1" depart="43" />
    <vehicle id="b776" type="bike" route="r2" depart="43" />
    <vehicle id="b778" type="bike" route="r4" depart="43" />
    <vehicle id="b779" type="bike" route="r5" depart="43" />
    <vehicle id="b780" type="bike" route="r6" depart="43" />
    <vehicle id="b781" type="bike" route="r7" depart="43" />
    <vehicle id="b783" type="bike" route="r9" depart="43" />
    <vehicle id="b786" type="bike" route="r12" depart="43" />
    <vehicle id="b788" type="bike" route="r14" depart="43" />
    <vehicle id="b789" type="bike" route="r15" depart="43" />
    <vehicle id="b790" type="bike" route="r16" depart="43" />
    <vehicle id="b791" type="bike" route="r17" depart="43" />
    <vehicle id="b792" type="bike" route="r0" depart="44" />
    <vehicle id="b793" type="bike" route="r1" depart="44" />
    <vehicle id="b797" type="bike" route="r5" depart="44" />
    <vehicle id="b799" type="bike" route="r7" depart="44" />
    <vehicle id="b800" type="bike" route="r8" depart="44" />
    <vehicle id="b802" type="bike" route="r10" depart="44" />
    <vehicle id="b804" type="bike" route="r12" depart="44" />
    <vehicle id="b805" type="bike" route="r13" depart="44" />
    <vehicle id="b806" type="bike" route="r14" depart="44" />
    <vehicle id="b807" type="bike" route="r15" depart="44" />
    <vehicle id="b810" type="bike" route="r0" depart="45" />
    <vehicle id="b811" type="bike" route="r1" depart="45" />
    <vehicle id="b813" type="bike" route="r3" depart="45" />
    <vehicle id="b814" type="bike" route="r4" depart="45" />
    <vehicle id="b815" type="bike" route="r5" depart="45" />
    <vehicle id="b819" type="bike" route="r9" depart="45" />
    <vehicle id="b821" type="bike" route="r11" depart="45" />
    <vehicle id="b822" type="bike" route="r12" depart="45" />
    <vehicle id="b827" type="bike" route="r17" depart="45" />
    <vehicle id="b828" type="bike" route="r0" depart="46" />
    <vehicle id="b830" type="bike" route="r2" depart="46" />
    <vehicle id="b833" type="bike" route="r5" depart="46" />
    <vehicle id="b835" type="bike" route="r7" depart="46" />
    <vehicle id="b837" type="bike" route="r9" depart="46" />
    <vehicle id="b840" type="bike" route="r12" depart="46" />
    <vehicle id="b841" type="bike" route="r13" depart="46" />
    <vehicle id="b843" type="bike" route="r15" depart="46" />
    <vehicle id="b844" type="bike" route="r16" depart="46" />
    <vehicle id="b847" type="bike" route="r1" depart="47" />
    <vehicle id="b852" type="bike" route="r6" depart="47" />
    <vehicle id="b853" type="bike" route="r7" depart="47" />
    <vehicle id="b854" type="bike" route="r8" depart="47" />
    <vehicle id="b855" type="bike" route="r9" depart="47" />
    <vehicle id="b860" type="bike" route="r14" depart="47" />
    <vehicle id="b861" type="bike" route="r15" depart="47" />
    <vehicle id="b863" type="bike" route="r17" depart="47" />
    <vehicle id="b864" type="bike" route="r0" depart="48" />
    <vehicle id="b866" type="bike" route="r2" depart="48" />
    <vehicle id="b870" type="bike" route="r6" depart="48" />
    <vehicle id="b871" type="bike" route="r7" depart="48" />
    <vehicle id="b874" type="bike" route="r10" depart="48" />
    <vehicle id="b876" type="bike" route="r12" depart="48" />
    <vehicle id="b881" type="bike" route="r17" depart="48" />
    <vehicle id="b883" type="bike" route="r1" depart="49" />
    <vehicle id="b886" type="bike" route="r4" depart="49" />
    <vehicle id="b891" type="bike" route="r9" depart="49" />
    <vehicle id="b896" type="bike" route="r14" depart="49" />
    <vehicle id="b899" type="bike" route="r17" depart="49" />
    <vehicle id="b900" type="bike" route="r0" depart="50" />
    <vehicle id="b901" type="bike" route="r1" depart="50" />
    <vehicle id="b903" type="bike" route="r3" depart="50" />
    <vehicle id="b904" type="bike" route="r4" depart="50" />
    <vehicle id="b905" type="bike" route="r5" depart="50" />
    <vehicle id="b907" type="bike" route="r7" depart="50" />
    <vehicle id="b910" type="bike" route="r10" depart="50" />
    <vehicle id="b912" type="bike" route="r12" depart="50" />
    <vehicle id="b916" type="bike" route="r16" depart="50" />
    <vehicle id="b917" type="bike" route="r17" depart="50" />
    <vehicle id="b919" type="bike" route="r1" depart="51" />
    <vehicle id="b923" type="bike" route="r5" depart="51" />
    <vehicle id="b924" type="bike" route="r6" depart="51" />
    <vehicle id="b926" type="bike" route="r8" depart="51" />
    <vehicle id="b928" type="bike" route="r10" depart="51" />
    <vehicle id="b929" type="bike" route="r11" depart="51" />
    <vehicle id="b933" type="bike" route="r15" depart="51" />
    <vehicle id="b934" type="bike" route="r16" depart="51" />
    <vehicle id="b936" type="bike" route="r0" depart="52" />
    <vehicle id="b937" type="bike" route="r1" depart="52" />
    <vehicle id="b943" type="bike" route="r7" depart="52" />
    <vehicle id="b945" type="bike" route="r9" depart="52" />
    <vehicle id="b946" type="bike" route="r10" depart="52" />
    <vehicle id="b952" type="bike" route="r16" depart="52" />
    <vehicle id="b953" type="bike" route="r17" depart="52" />
    <vehicle id="b956" type="bike" route="r2" depart="53" />
    <vehicle id="b960" type="bike" route="r6" depart="53" />
    <vehicle id="b961" type="bike" route="r7" depart="53" />
    <vehicle id="b964" type="bike" route="r10" depart="53" />
    <vehicle id="b965" type="bike" route="r11" depart="53" />
    <vehicle id="b967" type="bike" route="r13" depart="53" />
    <vehicle id="b970" type="bike" route="r16" depart="53" />
    <vehicle id="b972" type="bike" route="r0" depart="54" />
    <vehicle id="b974" type="bike" route="r2" depart="54" />
    <vehicle id="b975" type="bike" route="r3" depart="54" />
    <vehicle id="b977" type="bike" route="r5" depart="54" />
    <vehicle id="b983" type="bike" route="r11" depart="54" />
    <vehicle id="b988" type="bike" route="r16" depart="54" />
    <vehicle id="b989" type="bike" route="r17" depart="54" />
    <vehicle id="b990" type="bike" route="r0" depart="55" />
    <vehicle id="b991" type="bike" route="r1" depart="55" />
    <vehicle id="b992" type="bike" route="r2" depart="55" />
    <vehicle id="b995" type="bike" route="r5" depart="55" />
    <vehicle id="b998" type="bike" route="r8" depart="55" />
    <vehicle id="b1000" type="bike" route="r10" depart="55" />
    <vehicle id="b1005" type="bike" route="r15" depart="55" />
    <vehicle id="b1006" type="bike" route="r16" depart="55" />
    <vehicle id="b1008" type="bike" route="r0" depart="56" />
    <vehicle id="b1012" type="bike" route="r4" depart="56" />
    <vehicle id="b1013" type="bike" route="r5" depart="56" />
    <vehicle id="b1016" type="bike" route="r8" depart="56" />
    <vehicle id="b1018" type="bike" route="r10" depart="56" />
    <vehicle id="b1019" type="bike" route="r11" depart="56" />
    <vehicle id="b1021" type="bike" route="r13" depart="56" />
    <vehicle id="b1022" type="bike" route="r14" depart="56" />
    <vehicle id="b1025" type="bike" route="r17" depart="56" />
    <vehicle id="b1027" type="bike" route="r1" depart="57" />
    <vehicle id="b1028" type="bike" route="r2" depart="57" />
    <vehicle id="b1034" type="bike" route="r8" depart="57" />
    <vehicle id="b1035" type="bike" route="r9" depart="57" />
    <vehicle id="b1038" type="bike" route="r12" depart="57" />
    <vehicle id="b1040" type="bike" route="r14" depart="57" />
    <vehicle id="b1041" type="bike" route="r15" depart="57" />
    <vehicle id="b1043" type="bike" route="r17" depart="57" />
    <vehicle id="b1044" type="bike" route="r0" depart="58" />
    <vehicle id="b1045" type="bike" route="r1" depart="58" />
    <vehicle id="b1046" type="bike" route="r2" depart="58" />
    <vehicle id="b1047" type="bike" route="r3" depart="58" />
    <vehicle id="b1050" type="bike" route="r6" depart="58" />
    <vehicle id="b1053" type="bike" route="r9" depart="58" />
    <vehicle id="b1055" type="bike" route="r11" depart="58" />
    <vehicle id="b1056" type="bike" route="r12" depart="58" />
    <vehicle id="b1057" type="bike" route="r13" depart="58" />
    <vehicle id="b1058" type="bike" route="r14" depart="58" />
    <vehicle id="b1065" type="bike" route="r3" depart="59" />
    <vehicle id="b1066" type="bike" route="r4" depart="59" />
    <vehicle id="b1069" type="bike" route="r7" depart="59" />