<?xml version="1.0" encoding="UTF-8"?>

<!-- generated on 2023-07-06 15:51:15 by Eclipse SUMO sumo Version 1.16.0
-->

<configuration xmlns:xsi="http://www.w3.org/2001/XMLSchema-instance" xsi:noNamespaceSchemaLocation="http://sumo.dlr.de/xsd/sumoConfiguration.xsd">

    <input>
        <net-file value="demoCSFxSUMO-large.net.xml"/>
		<route-files value="demoCSFxSUMO-large.rou.xml"/>
    </input>

</configuration>
