<?xml version="1.0" encoding="UTF-8"?>

<!-- generated on 2023-02-09 16:12:23 by Eclipse SUMO sumo Version 1.16.0
-->

<configuration xmlns:xsi="http://www.w3.org/2001/XMLSchema-instance" xsi:noNamespaceSchemaLocation="http://sumo.dlr.de/xsd/sumoConfiguration.xsd">

    <input>
        <net-file value="demoCSFxSUMO.net.xml"/>
        <route-files value="demoCSFxSUMO.rou.xml"/>
    </input>

</configuration>


