<?xml version="1.0" encoding="UTF-8"?>

<!-- generated on 2023-07-07 10:21:28 by Eclipse SUMO netedit Version 1.16.0
<configuration xmlns:xsi="http://www.w3.org/2001/XMLSchema-instance" xsi:noNamespaceSchemaLocation="http://sumo.dlr.de/xsd/netconvertConfiguration.xsd">

    <input>
        <sumo-net-file value="U:\PhDConnectedVRU\Projects\bikedyn-microsim\bikedyn-microsim-v0.1.x\demo\config\demoCSFxSUMO.net.xml"/>
    </input>

    <output>
        <output-file value="U:\PhDConnectedVRU\Projects\bikedyn-microsim\bikedyn-microsim-v0.1.x\demo\config\demoCSFxSUMO.net.xml"/>
    </output>

    <processing>
        <geometry.min-radius.fix.railways value="false"/>
        <geometry.max-grade.fix value="false"/>
        <offset.disable-normalization value="true"/>
        <lefthand value="0"/>
    </processing>

    <junctions>
        <no-turnarounds value="true"/>
        <junctions.corner-detail value="5"/>
        <junctions.limit-turn-speed value="5.50"/>
        <rectangular-lane-cut value="0"/>
    </junctions>

    <pedestrian>
        <walkingareas value="0"/>
    </pedestrian>

</configuration>
-->

<net version="1.16" junctionCornerDetail="5" limitTurnSpeed="5.50" xmlns:xsi="http://www.w3.org/2001/XMLSchema-instance" xsi:noNamespaceSchemaLocation="http://sumo.dlr.de/xsd/net_file.xsd">

    <location netOffset="0.00,0.00" convBoundary="-34.17,29.49,19.55,81.66" origBoundary="-10000000000.00,-10000000000.00,10000000000.00,10000000000.00" projParameter="!"/>

    <edge id=":J27_0" function="internal">
        <lane id=":J27_0_0" index="0" allow="bicycle" speed="13.89" length="15.29" shape="7.81,54.80 3.27,54.71 0.15,54.63 -2.95,54.84 -7.40,55.62"/>
    </edge>
    <edge id=":J27_1" function="internal">
        <lane id=":J27_1_0" index="0" allow="bicycle" speed="9.50" length="20.35" shape="7.81,54.80 2.30,54.01 -1.64,51.65 -4.02,47.71 -4.84,42.19"/>
    </edge>
    <edge id=":J27_2" function="internal">
        <lane id=":J27_2_0" index="0" speed="13.89" length="15.45" shape="7.83,51.60 3.24,51.50 0.08,51.40 -3.05,51.60 -7.54,52.38"/>
    </edge>
    <edge id=":J27_3" function="internal">
        <lane id=":J27_3_0" index="0" speed="8.08" length="14.42" shape="7.83,51.60 4.47,50.75 1.43,48.56 -0.78,45.52 -1.64,42.17"/>
    </edge>
    <edge id=":J27_4" function="internal">
        <lane id=":J27_4_0" index="0" allow="bicycle" speed="5.05" length="4.99" shape="4.76,42.14 4.96,43.49 5.54,44.46 6.51,45.04 7.86,45.24"/>
    </edge>
    <edge id=":J27_5" function="internal">
        <lane id=":J27_5_0" index="0" allow="bicycle" speed="10.15" length="19.89" shape="4.76,42.14 4.02,47.09 1.75,50.98 -2.06,53.82 -7.40,55.62"/>
    </edge>
    <edge id=":J27_6" function="internal">
        <lane id=":J27_6_0" index="0" speed="6.87" length="10.11" shape="1.56,42.16 1.97,44.89 3.15,46.85 5.11,48.04 7.84,48.44"/>
    </edge>
    <edge id=":J27_7" function="internal">
        <lane id=":J27_7_0" index="0" speed="8.73" length="14.50" shape="1.56,42.16 0.78,45.38 -1.31,48.48 -4.23,50.98 -7.54,52.38"/>
    </edge>
    <edge id=":J27_8" function="internal">
        <lane id=":J27_8_0" index="0" allow="bicycle" speed="5.41" length="5.25" shape="-7.84,45.86 -6.52,45.46 -5.58,44.71 -5.02,43.62 -4.84,42.19"/>
    </edge>
    <edge id=":J27_9" function="internal">
        <lane id=":J27_9_0" index="0" allow="bicycle" speed="13.89" length="15.75" shape="-7.84,45.86 -3.22,45.26 -0.02,45.09 3.19,45.15 7.86,45.24"/>
    </edge>
    <edge id=":J27_10" function="internal">
        <lane id=":J27_10_0" index="0" speed="7.24" length="10.17" shape="-7.70,49.07 -5.03,48.29 -3.14,46.89 -2.01,44.84 -1.64,42.17"/>
    </edge>
    <edge id=":J27_11" function="internal">
        <lane id=":J27_11_0" index="0" speed="13.89" length="15.58" shape="-7.70,49.07 -3.12,48.48 0.04,48.30 3.22,48.36 7.84,48.44"/>
    </edge>

    <edge id="-E29" from="J27" to="J26" priority="-1" shape="0.00,50.00 -2.02,50.09 -3.98,50.24 -5.87,50.47 -7.71,50.78 -9.49,51.15 -11.21,51.59 -12.86,52.11 -14.46,52.70 -16.00,53.36 -17.48,54.09 -18.90,54.90 -20.25,55.78 -21.55,56.72 -22.79,57.74 -23.97,58.83 -25.09,60.00 -26.15,61.23 -27.14,62.54 -28.08,63.92 -28.96,65.37 -29.78,66.89 -30.54,68.49 -31.24,70.15 -31.88,71.89 -32.45,73.70 -32.97,75.58 -33.43,77.54 -33.83,79.56 -34.17,81.66">
        <lane id="-E29_0" index="0" allow="bicycle" speed="13.89" length="39.59" shape="-7.40,55.62 -8.41,55.83 -9.89,56.21 -11.31,56.65 -12.68,57.16 -13.99,57.72 -15.23,58.33 -16.40,59.00 -17.53,59.74 -18.62,60.52 -19.64,61.36 -20.61,62.25 -21.54,63.23 -22.41,64.25 -23.24,65.34 -24.04,66.52 -24.79,67.75 -25.50,69.06 -26.16,70.45 -26.77,71.91 -27.34,73.44 -27.85,75.06 -28.32,76.77 -28.74,78.55 -29.11,80.41 -29.43,82.43"/>
        <lane id="-E29_1" index="1" speed="13.89" length="39.59" shape="-7.54,52.38 -9.13,52.71 -10.77,53.13 -12.34,53.62 -13.87,54.19 -15.33,54.81 -16.73,55.50 -18.07,56.27 -19.34,57.10 -20.57,57.99 -21.74,58.95 -22.85,59.97 -23.91,61.08 -24.90,62.24 -25.84,63.47 -26.73,64.79 -27.57,66.16 -28.35,67.61 -29.08,69.14 -29.75,70.74 -30.37,72.41 -30.92,74.15 -31.42,75.98 -31.87,77.88 -32.26,79.84 -32.59,81.92"/>
    </edge>
    <edge id="-E30" from="J28" to="J27" priority="-1" shape="19.55,50.10 16.80,50.00 0.00,50.00">
        <lane id="-E30_0" index="0" allow="bicycle" speed="13.89" length="11.62" shape="19.38,54.90 16.71,54.80 7.81,54.80"/>
        <lane id="-E30_1" index="1" speed="13.89" length="11.62" shape="19.49,51.70 16.77,51.60 7.83,51.60"/>
    </edge>
    <edge id="-E31" from="J29" to="J27" priority="-1">
        <lane id="-E31_0" index="0" allow="bicycle" speed="13.89" length="12.67" shape="4.70,29.47 4.76,42.14"/>
        <lane id="-E31_1" index="1" speed="13.89" length="12.67" shape="1.50,29.48 1.56,42.16"/>
    </edge>
    <edge id="E29" from="J26" to="J27" priority="-1" shape="-34.17,81.66 -33.85,79.54 -33.47,77.50 -33.02,75.53 -32.52,73.63 -31.95,71.81 -31.33,70.06 -30.64,68.38 -29.89,66.77 -29.08,65.24 -28.20,63.78 -27.27,62.40 -26.28,61.09 -25.22,59.85 -24.10,58.69 -22.93,57.59 -21.69,56.57 -20.39,55.63 -19.02,54.76 -17.60,53.96 -16.12,53.23 -14.57,52.58 -12.96,52.00 -11.29,51.50 -9.57,51.06 -7.77,50.70 -5.92,50.42 -4.01,50.21 -2.04,50.07 0.00,50.00">
        <lane id="E29_0" index="0" allow="bicycle" speed="13.89" length="48.56" shape="-38.92,80.94 -38.58,78.74 -38.17,76.53 -37.68,74.39 -37.13,72.30 -36.50,70.29 -35.81,68.35 -35.04,66.46 -34.19,64.63 -33.26,62.88 -32.25,61.20 -31.18,59.61 -30.02,58.08 -28.77,56.62 -27.47,55.27 -26.10,53.98 -24.62,52.77 -23.08,51.66 -21.49,50.64 -19.84,49.71 -18.11,48.86 -16.31,48.11 -14.46,47.44 -12.57,46.87 -10.63,46.38 -8.60,45.97 -7.84,45.86"/>
        <lane id="E29_1" index="1" speed="13.89" length="48.56" shape="-35.75,81.42 -35.43,79.27 -35.04,77.18 -34.57,75.15 -34.06,73.19 -33.47,71.30 -32.82,69.49 -32.11,67.74 -31.32,66.06 -30.47,64.45 -29.55,62.92 -28.57,61.47 -27.53,60.09 -26.40,58.77 -25.22,57.55 -23.99,56.39 -22.67,55.30 -21.29,54.31 -19.84,53.39 -18.35,52.54 -16.78,51.77 -15.15,51.09 -13.46,50.48 -11.72,49.96 -9.92,49.50 -8.05,49.12 -7.70,49.07"/>
    </edge>
    <edge id="E30" from="J27" to="J28" priority="-1">
        <lane id="E30_0" index="0" allow="bicycle" speed="13.89" length="11.71" shape="7.86,45.24 19.57,45.30"/>
        <lane id="E30_1" index="1" speed="13.89" length="11.71" shape="7.84,48.44 19.56,48.50"/>
    </edge>
    <edge id="E31" from="J27" to="J29" priority="-1">
        <lane id="E31_0" index="0" allow="bicycle" speed="13.89" length="12.67" shape="-4.84,42.19 -4.90,29.51"/>
        <lane id="E31_1" index="1" speed="13.89" length="12.67" shape="-1.64,42.17 -1.70,29.50"/>
    </edge>

    <junction id="J26" type="dead_end" x="-34.17" y="81.66" incLanes="-E29_0 -E29_1" intLanes="" shape="-34.17,81.66 -40.50,80.70 -27.85,82.68"/>
    <junction id="J27" type="unregulated" x="0.00" y="50.00" incLanes="-E30_0 -E30_1 -E31_0 -E31_1 E29_0 E29_1" intLanes=":J27_0_0 :J27_1_0 :J27_2_0 :J27_3_0 :J27_4_0 :J27_5_0 :J27_6_0 :J27_7_0 :J27_8_0 :J27_9_0 :J27_10_0 :J27_11_0" shape="7.80,56.40 7.87,43.64 7.03,43.47 6.74,43.26 6.53,42.97 6.41,42.59 6.36,42.13 -6.44,42.19 -6.60,43.24 -6.80,43.62 -7.09,43.92 -7.46,44.13 -7.91,44.25 -7.32,57.24 -4.15,56.64 -1.79,56.33 0.18,56.24 2.16,56.27 4.57,56.35"/>
    <junction id="J28" type="dead_end" x="19.55" y="50.10" incLanes="E30_0 E30_1" intLanes="" shape="19.55,50.10 19.32,56.50 19.58,43.70"/>
    <junction id="J29" type="dead_end" x="-0.10" y="29.49" incLanes="E31_0 E31_1" intLanes="" shape="-0.10,29.49 -6.50,29.52 -0.10,29.49"/>

    <connection from="-E30" to="-E29" fromLane="0" toLane="0" via=":J27_0_0" dir="s" state="M"/>
    <connection from="-E30" to="E31" fromLane="0" toLane="0" via=":J27_1_0" dir="l" state="M"/>
    <connection from="-E30" to="-E29" fromLane="1" toLane="1" via=":J27_2_0" dir="s" state="M"/>
    <connection from="-E30" to="E31" fromLane="1" toLane="1" via=":J27_3_0" dir="l" state="M"/>
    <connection from="-E31" to="E30" fromLane="0" toLane="0" via=":J27_4_0" dir="r" state="M"/>
    <connection from="-E31" to="-E29" fromLane="0" toLane="0" via=":J27_5_0" dir="l" state="M"/>
    <connection from="-E31" to="E30" fromLane="1" toLane="1" via=":J27_6_0" dir="r" state="M"/>
    <connection from="-E31" to="-E29" fromLane="1" toLane="1" via=":J27_7_0" dir="l" state="M"/>
    <connection from="E29" to="E31" fromLane="0" toLane="0" via=":J27_8_0" dir="r" state="M"/>
    <connection from="E29" to="E30" fromLane="0" toLane="0" via=":J27_9_0" dir="s" state="M"/>
    <connection from="E29" to="E31" fromLane="1" toLane="1" via=":J27_10_0" dir="r" state="M"/>
    <connection from="E29" to="E30" fromLane="1" toLane="1" via=":J27_11_0" dir="s" state="M"/>

    <connection from=":J27_0" to="-E29" fromLane="0" toLane="0" dir="s" state="M"/>
    <connection from=":J27_1" to="E31" fromLane="0" toLane="0" dir="l" state="M"/>
    <connection from=":J27_2" to="-E29" fromLane="0" toLane="1" dir="s" state="M"/>
    <connection from=":J27_3" to="E31" fromLane="0" toLane="1" dir="l" state="M"/>
    <connection from=":J27_4" to="E30" fromLane="0" toLane="0" dir="r" state="M"/>
    <connection from=":J27_5" to="-E29" fromLane="0" toLane="0" dir="l" state="M"/>
    <connection from=":J27_6" to="E30" fromLane="0" toLane="1" dir="r" state="M"/>
    <connection from=":J27_7" to="-E29" fromLane="0" toLane="1" dir="l" state="M"/>
    <connection from=":J27_8" to="E31" fromLane="0" toLane="0" dir="r" state="M"/>
    <connection from=":J27_9" to="E30" fromLane="0" toLane="0" dir="s" state="M"/>
    <connection from=":J27_10" to="E31" fromLane="0" toLane="1" dir="r" state="M"/>
    <connection from=":J27_11" to="E30" fromLane="0" toLane="1" dir="s" state="M"/>

</net>
